-114—

mediamque sedem occupans, τῆς ἑρμηνείας αἴτιον. Hos
precibus honoraredecet, laudandae interpretationis
ergo. Conspici non possunt, neque, etiamsi prope
nos sunt, nobis apparent. Eximiae prudentiae par-
ticipes, utpote docili ingenio tenacique memoria
praediti, cogitationes nostras omnes intelligunt.¹ Pul,-
crum adeo bonumque nostrum mirifice amant, secl
malum oderunt3 nam dolore non vacant (1). ’

Haec autem sententia multis aliis locis confirmari
videtur. Sic legislator juvenes optima fide amplecti
Ἤιδει, quae ad TELEMACHUM apud Poetam dicuntur:

Τηλέμαχ’,ἄλλα μὲν αὐτὸς ἑνὶ φρεσὶ σῇσι νοήσεις, “

ἄλλα δὲ καὶ δαίμων ὑποθήσεται· οὐ γὰρ ὀΐω

οὔ σε θεῶν ἀέκητι γενέσθαι τε τραφέμεν τε.
Sperare nempe debent, quaedam sibi suggesturum
Deum atque Daemonem ‚ veluti de sacrificiis cho-³
reisque praecepta (2). Deorum per loca supercoe-
lestia iter sequuntur quoque Daemones (5). Ubi
Deorum laudes in sacris hymnis sint celebratae, Dae—
monibus quoque preces fundere cum ‘laudibus prae-
cipit ΑΤΗΕΝῙΕΝεῙε Hospes (4). In Phaedone Dae-
mon cujusque fingitur animum, a corpore solutum,
in coelestia loca evehere (5).

Saepius denique suum Daemonem memorare soli-
tum fuisse SocRA'rEM e PLAroNE quoque discimus.
In Theage maxime de hoc suo Genio disserit So-
anTEs. Gum enim Damonocus filium 'I'HEAGEM

 

(ι) Ennomus 984. E. - 985. B.
(a) Lm. Vll. 804. A. Cf. V. 732.
(3) Pnnnnus. 246. E.

(4) LBG. Vll. 801. E.

(5) Pluzno. 108. Β.

